Version 4
SHEET 1 1612 680
WIRE 144 -48 64 -48
WIRE 432 -48 144 -48
WIRE 608 -48 432 -48
WIRE 816 -48 688 -48
WIRE 944 -48 880 -48
WIRE 1024 -48 944 -48
WIRE 1088 -48 1024 -48
WIRE 64 0 64 -48
WIRE 144 0 144 -48
WIRE 608 0 608 -48
WIRE 688 0 688 -48
WIRE 1088 0 1088 -48
WIRE -384 96 -448 96
WIRE -256 96 -384 96
WIRE -96 96 -176 96
WIRE -64 96 -96 96
WIRE 64 96 64 64
WIRE 64 96 -64 96
WIRE 1088 96 1088 64
WIRE 944 112 944 -48
WIRE -448 128 -448 96
WIRE -64 128 -64 96
WIRE 608 160 608 80
WIRE 1088 208 1088 176
WIRE -448 240 -448 208
WIRE -64 240 -64 192
WIRE -64 240 -448 240
WIRE -16 240 -64 240
WIRE 144 240 144 64
WIRE 144 240 -16 240
WIRE 352 240 304 240
WIRE 512 240 432 240
WIRE 560 240 512 240
WIRE 64 256 64 96
WIRE 144 256 144 240
WIRE 304 256 304 240
WIRE 64 368 64 320
WIRE 144 368 144 320
WIRE 144 368 64 368
WIRE 304 368 304 336
WIRE 304 368 144 368
WIRE 608 368 608 256
WIRE 608 368 304 368
WIRE 688 368 688 80
WIRE 688 368 608 368
WIRE 944 368 944 176
WIRE 944 368 688 368
WIRE 1088 368 1088 288
WIRE 1088 368 944 368
WIRE 64 400 64 368
FLAG 64 400 0
FLAG 1024 -48 out
FLAG 512 240 gate
FLAG 432 -48 in
FLAG -384 96 L
FLAG -96 96 ac1
FLAG -16 240 N
SYMBOL voltage -448 112 R0
WINDOW 123 0 0 Left 0
WINDOW 39 0 0 Left 0
WINDOW 3 33 86 Left 2
SYMATTR Value SINE(0 {sqrt(2)*230} 50)
SYMATTR InstName Vg
SYMBOL cap 928 112 R0
SYMATTR InstName Co
SYMATTR Value 1280µ
SYMBOL res 1072 80 R0
SYMATTR InstName Rd
SYMATTR Value 16
SYMBOL voltage 1088 192 R0
WINDOW 0 44 34 Left 2
WINDOW 3 37 68 Left 2
SYMATTR InstName Vd
SYMATTR Value 63.7
SYMBOL ind2 592 -16 R0
WINDOW 0 -42 39 Left 2
WINDOW 3 -59 76 Left 2
SYMATTR InstName L1
SYMATTR Value {L1}
SYMBOL nmos 560 160 R0
WINDOW 3 -87 -11 Left 2
SYMATTR Value STP8NM60
SYMATTR InstName M1
SYMBOL diode 80 64 R180
WINDOW 0 24 64 Left 2
WINDOW 3 24 0 Left 2
SYMATTR InstName D2
SYMATTR Value MUR460
SYMBOL diode 160 64 R180
WINDOW 0 24 64 Left 2
WINDOW 3 -91 0 Left 2
SYMATTR InstName D3
SYMATTR Value MUR460
SYMBOL diode 80 320 R180
WINDOW 0 24 64 Left 2
WINDOW 3 24 0 Left 2
SYMATTR InstName D4
SYMATTR Value MUR460
SYMBOL diode 160 320 R180
WINDOW 0 24 64 Left 2
WINDOW 3 -81 -2 Left 2
SYMATTR InstName D5
SYMATTR Value MUR460
SYMBOL ind2 704 96 R180
WINDOW 0 -48 65 Left 2
WINDOW 3 -125 31 Left 2
SYMATTR InstName L2
SYMATTR Value {n**2*L1}
SYMBOL diode 816 -32 R270
WINDOW 0 32 32 VTop 2
WINDOW 3 0 32 VBottom 2
SYMATTR InstName D1
SYMATTR Value MUR460
SYMBOL Control\\idiode 1072 0 R0
SYMATTR InstName U1
SYMBOL ind -272 112 R270
WINDOW 0 34 53 VTop 2
WINDOW 3 5 56 VBottom 2
SYMATTR InstName L3
SYMATTR Value 50m
SYMBOL cap -80 128 R0
SYMATTR InstName C1
SYMATTR Value 100n
SYMBOL voltage 304 240 R0
WINDOW 0 39 76 Left 2
WINDOW 3 -108 153 Left 2
WINDOW 123 0 0 Left 2
WINDOW 39 0 0 Left 2
SYMATTR InstName Vgate1
SYMATTR Value PULSE(0 15 0 100n 100n {D/fs} {1/fs})
SYMBOL res 448 256 M270
WINDOW 0 28 117 VTop 2
WINDOW 3 -6 52 VBottom 2
SYMATTR InstName Rgate1
SYMATTR Value 10
TEXT -312 -120 Left 2 !.tran 0 200m 160m uic
TEXT 56 -128 Left 2 !.param D=0.165\n.param fs=100k
TEXT 584 -80 Left 2 !k12 L1 L2 1
TEXT -312 -80 Left 2 !.options reltol=1m
TEXT 304 -128 Left 2 !.param n=1\n.param L1=222u
