Version 4
SHEET 1 1524 924
WIRE -176 -48 -224 -48
WIRE -112 -48 -176 -48
WIRE -48 -48 -112 -48
WIRE 224 -48 -48 -48
WIRE 336 -48 224 -48
WIRE 448 -48 400 -48
WIRE 464 -48 448 -48
WIRE 576 -48 464 -48
WIRE 720 -48 640 -48
WIRE 832 -48 768 -48
WIRE 944 -48 896 -48
WIRE 1040 -48 944 -48
WIRE 1104 -48 1040 -48
WIRE 464 -32 464 -48
WIRE -224 -16 -224 -48
WIRE -112 -16 -112 -48
WIRE 1104 -16 1104 -48
WIRE 224 64 224 -48
WIRE 304 64 224 64
WIRE 448 64 384 64
WIRE 464 64 464 32
WIRE 464 64 448 64
WIRE -576 80 -624 80
WIRE -528 80 -576 80
WIRE -336 80 -448 80
WIRE -256 80 -336 80
WIRE -224 80 -224 48
WIRE -224 80 -256 80
WIRE -48 96 -48 -48
WIRE 720 96 720 -48
WIRE 768 96 768 -48
WIRE 944 96 944 -48
WIRE 1104 96 1104 48
WIRE -624 112 -624 80
WIRE -336 112 -336 80
WIRE 464 144 464 64
WIRE -624 224 -624 192
WIRE -400 224 -624 224
WIRE -336 224 -336 176
WIRE -336 224 -400 224
WIRE -112 224 -112 48
WIRE -112 224 -336 224
WIRE 192 224 144 224
WIRE 352 224 272 224
WIRE 416 224 352 224
WIRE 1104 224 1104 176
WIRE 144 240 144 224
WIRE -224 256 -224 80
WIRE -112 256 -112 224
WIRE -224 352 -224 320
WIRE -112 352 -112 320
WIRE -112 352 -224 352
WIRE -48 352 -48 160
WIRE -48 352 -112 352
WIRE 0 352 -48 352
WIRE 144 352 144 320
WIRE 144 352 80 352
WIRE 464 352 464 240
WIRE 464 352 144 352
WIRE 720 352 720 176
WIRE 720 352 464 352
WIRE 768 352 768 176
WIRE 768 352 720 352
WIRE 944 352 944 160
WIRE 944 352 768 352
WIRE 1104 352 1104 304
WIRE 1104 352 944 352
WIRE -112 400 -112 352
FLAG -112 400 0
FLAG -176 -48 rect
FLAG -256 80 ac1
FLAG 448 -48 b1
FLAG 448 64 b2
FLAG 1040 -48 out
FLAG -576 80 L1
FLAG -400 224 L2
FLAG 352 224 gate
SYMBOL voltage -624 96 R0
WINDOW 3 4 102 Left 2
WINDOW 123 0 0 Left 2
WINDOW 39 0 0 Left 2
SYMATTR Value SINE(0 325 50)
SYMATTR InstName Vg
SYMBOL diode -208 48 R180
WINDOW 0 24 64 Left 2
WINDOW 3 43 31 Left 2
SYMATTR InstName D1
SYMATTR Value MUR460
SYMBOL diode -96 48 R180
WINDOW 0 24 64 Left 2
WINDOW 3 23 2 Left 2
SYMATTR InstName D2
SYMATTR Value MUR460
SYMBOL diode -208 320 R180
WINDOW 0 24 64 Left 2
WINDOW 3 24 0 Left 2
SYMATTR InstName D3
SYMATTR Value MUR460
SYMBOL diode -96 320 R180
WINDOW 0 24 64 Left 2
WINDOW 3 24 0 Left 2
SYMATTR InstName D4
SYMATTR Value MUR460
SYMBOL nmos 416 144 R0
WINDOW 0 63 32 Left 2
WINDOW 3 58 63 Left 2
SYMATTR InstName M1
SYMATTR Value STP8NM60
SYMBOL ind 288 80 R270
WINDOW 0 32 56 VTop 2
WINDOW 3 5 56 VBottom 2
SYMATTR InstName L1
SYMATTR Value 0.222m
SYMBOL diode 400 -64 R90
WINDOW 0 0 32 VBottom 2
WINDOW 3 32 32 VTop 2
SYMATTR InstName D5
SYMATTR Value MUR460
SYMBOL cap 928 96 R0
SYMATTR InstName C1
SYMATTR Value 3µ
SYMBOL res 1120 80 M0
SYMATTR InstName Rd
SYMATTR Value 16
SYMBOL voltage 1104 208 R0
WINDOW 0 -84 45 Left 2
WINDOW 3 -86 74 Left 2
WINDOW 123 0 0 Left 2
WINDOW 39 0 0 Left 2
SYMATTR InstName Vth
SYMATTR Value 63.7
SYMBOL ind -544 96 R270
WINDOW 0 32 56 VTop 2
WINDOW 3 5 56 VBottom 2
SYMATTR InstName L2
SYMATTR Value 10m
SYMBOL cap -352 112 R0
SYMATTR InstName C2
SYMATTR Value 150n
SYMBOL diode 640 -64 R90
WINDOW 0 0 32 VBottom 2
WINDOW 3 32 32 VTop 2
SYMATTR InstName D6
SYMATTR Value MUR460
SYMBOL ind2 704 80 R0
WINDOW 0 -42 37 Left 2
WINDOW 3 -94 76 Left 2
SYMATTR InstName L3
SYMATTR Value 0.444m
SYMATTR Type ind
SYMBOL cap 448 -32 R0
SYMATTR InstName C3
SYMATTR Value 11.6µ
SYMBOL diode 832 -32 R270
WINDOW 0 32 32 VTop 2
WINDOW 3 0 32 VBottom 2
SYMATTR InstName D7
SYMATTR Value MUR460
SYMBOL ind2 784 80 M0
WINDOW 0 -48 40 Left 2
WINDOW 3 -102 75 Left 2
SYMATTR InstName L4
SYMATTR Value 0.444m
SYMATTR Type ind
SYMBOL voltage 144 224 R0
WINDOW 0 40 57 Left 2
WINDOW 3 9 158 Left 2
WINDOW 123 0 0 Left 2
WINDOW 39 0 0 Left 2
SYMATTR InstName Vgate1
SYMATTR Value PULSE(0 15 0 100n 100n {D/fs} {1/fs})
SYMBOL res 288 240 M270
WINDOW 0 28 117 VTop 2
WINDOW 3 0 56 VBottom 2
SYMATTR InstName Rgate1
SYMATTR Value 10
SYMBOL Control\\idiode 1088 -16 R0
WINDOW 0 -57 12 Left 2
WINDOW 38 -78 38 Left 2
SYMATTR InstName U1
SYMBOL res 96 336 R90
WINDOW 0 0 56 VBottom 2
WINDOW 3 32 56 VTop 2
SYMATTR InstName R1
SYMATTR Value 1m
SYMBOL cap -64 96 R0
SYMATTR InstName C4
SYMATTR Value 1n
TEXT -480 -144 Left 2 !.tran 0 120m 100m 0.5u uic
TEXT 80 -144 Left 2 !.param D 0.165\n.param fs 100k
TEXT 680 -64 Left 2 !k34 L3 L4 1
TEXT -480 -104 Left 2 !.options reltol=1m
